*
V1 1 0 2
V2 2 3 0.2
V3 4 5 2
I1 6 7 1e-3
I2 0 5 1e-3

R1 8 1 1.5
R2 8 3 1
R3 9 3 50
R4 1 5 0.1
R5 3 5 1.5
R6 2 6 0.1
R7 7 0 1000
R8 6 0 10

*.op
.DC V1 0 3 0.01
.options sparse
.options iter
.PLOT V(4)

